Circuit: * D:\Documents\programming\octave\spice\octaver.asc

Direct Newton iteration failed to find .op point.  (Use ".option noopiter" to skip.)
Starting Gmin stepping
Gmin = 10
Gmin = 1.07374
Gmin = 0.115292
Gmin = 0.0123794
Gmin = 0.00132923
Gmin = 0.000142725
Gmin = 1.5325e-005
Gmin = 1.6455e-006
Gmin = 1.76685e-007
Gmin = 1.89714e-008
Gmin = 2.03704e-009
Gmin = 2.18725e-010
Gmin = 2.34854e-011
Gmin = 2.52173e-012
Gmin = 2.70769e-013
Gmin = 0
Gmin stepping succeeded in finding the operating point.

Heightened Def Con from 0.109105 to 0.109105
Heightened Def Con from 0.120477 to 0.120477

Date: Sun Sep 12 17:13:41 2021
Total elapsed time: 6.986 seconds.

tnom = 27
temp = 27
method = modified trap
totiter = 111803
traniter = 111359
tranpoints = 42467
accept = 31094
rejected = 11375
matrix size = 131
fillins = 117
solver = Normal
Thread vector: 58.0/26.8[12] 14.3/7.4[12] 10.3/3.7[12] 0.9/2.3[1]  2592/500
Matrix Compiler1: 13.97 KB object code size  3.8/1.9/[1.0]
Matrix Compiler2: 16.13 KB object code size  3.3/5.6/[1.3]

