Circuit: * D:\Documents\programming\octave\spice_octave_digital\octaver.asc

Direct Newton iteration for .op point succeeded.

Date: Tue Nov 02 18:37:10 2021
Total elapsed time: 0.304 seconds.

tnom = 27
temp = 27
method = trap
totiter = 5
traniter = 0
tranpoints = 0
accept = 0
rejected = 0
matrix size = 763
fillins = 1005
solver = Normal
Matrix Compiler1:    5676 opcodes
Matrix Compiler2: 80.98 KB object code size
